Circuit: * D:\_Git\IO\LAB1\Zener\Zener_current_sweep.asc

Direct Newton iteration for .op point succeeded.
Semiconductor Device Operating Points:
                        --- Diodes ---
Name:        d1
Model: bzx84c6v2lt116
Id:      -2.21e-02
Vd:      -6.22e+00
Req:      5.85e-01
CAP:      1.11e-07



Date: Mon Nov 09 00:47:47 2020
Total elapsed time: 1.882 seconds.

tnom = 27
temp = 27
method = trap
totiter = 5
traniter = 0
tranpoints = 0
accept = 0
rejected = 0
matrix size = 4
fillins = 0
solver = Normal
Matrix Compiler1: 100 bytes object code size
Matrix Compiler2: 248 bytes object code size
