Circuit: * D:\_Git\IO\LAB1\Zener\Zener.asc

Direct Newton iteration for .op point succeeded.
Semiconductor Device Operating Points:
                        --- Diodes ---
Name:        d1
Model: bzx84c6v2lt116
Id:      -9.74e-06
Vd:      -6.00e+00
Req:      2.92e+04
CAP:      1.78e-11



Date: Mon Nov 09 00:17:03 2020
Total elapsed time: 3.583 seconds.

tnom = 27
temp = 27
method = trap
totiter = 22
traniter = 0
tranpoints = 0
accept = 0
rejected = 0
matrix size = 4
fillins = 0
solver = Normal
Matrix Compiler1: 100 bytes object code size
Matrix Compiler2: 248 bytes object code size
