Circuit: * D:\_Git\IO\LAB1\Dzielnik\Dzielnik.asc

Direct Newton iteration for .op point succeeded.

Date: Mon Nov 09 00:12:33 2020
Total elapsed time: 0.105 seconds.

tnom = 27
temp = 27
method = trap
totiter = 3
traniter = 0
tranpoints = 0
accept = 0
rejected = 0
matrix size = 3
fillins = 0
solver = Normal
Matrix Compiler1: 50 bytes object code size
Matrix Compiler2: 175 bytes object code size
